@<TRIPOS>MOLECULE
BLA
  134   133     1     0     0
SMALL
bcc


@<TRIPOS>ATOM
      1 C         -12.2760    5.8420    0.5820 c3        1 BLA     -0.093100
      2 C1        -11.0370    4.9620    0.6350 c3        1 BLA     -0.080400
      3 H         -12.1980    6.6730    1.2910 hc        1 BLA      0.032700
      4 H1        -13.1670    5.2600    0.8360 hc        1 BLA      0.032700
      5 H2        -12.4180    6.2590   -0.4200 hc        1 BLA      0.032700
      6 C2         -9.7790    5.7490    0.2730 c3        1 BLA     -0.079400
      7 H3        -11.1660    4.1240   -0.0610 hc        1 BLA      0.038700
      8 H4        -10.9360    4.5370    1.6400 hc        1 BLA      0.038700
      9 C3         -8.5350    4.8580    0.2840 c3        1 BLA     -0.079400
     10 H5         -9.6430    6.5780    0.9780 hc        1 BLA      0.039200
     11 H6         -9.9040    6.1910   -0.7240 hc        1 BLA      0.039200
     12 C4         -7.3080    5.6230   -0.2090 c3        1 BLA     -0.078400
     13 H7         -8.7050    3.9940   -0.3680 hc        1 BLA      0.039700
     14 H8         -8.3580    4.4730    1.2950 hc        1 BLA      0.039700
     15 C5         -6.0720    4.7220   -0.3000 c3        1 BLA     -0.082400
     16 H9         -7.0980    6.4680    0.4580 hc        1 BLA      0.039200
     17 H10        -7.5270    6.0430   -1.1980 hc        1 BLA      0.039200
     18 C6         -4.9660    5.4120   -1.1010 c3        1 BLA     -0.074400
     19 H11        -6.3400    3.7810   -0.7950 hc        1 BLA      0.043200
     20 H12        -5.7180    4.4700    0.7070 hc        1 BLA      0.043200
     21 C7         -3.7560    4.5090   -1.3430 c3        1 BLA     -0.052200
     22 H13        -4.6680    6.3460   -0.6090 hc        1 BLA      0.039700
     23 H14        -5.3730    5.6910   -2.0820 hc        1 BLA      0.039700
     24 C8         -2.7220    4.5850   -0.2580 c2        1 BLA     -0.168200
     25 H15        -3.2640    4.8400   -2.2660 hc        1 BLA      0.049200
     26 H16        -4.0750    3.4750   -1.5200 hc        1 BLA      0.049200
     27 C9         -2.2310    3.5150    0.3860 c2        1 BLA     -0.181200
     28 C10        -1.0530    3.5780    1.3170 c3        1 BLA     -0.047200
     29 C11         0.1570    2.8030    0.7740 c3        1 BLA     -0.076400
     30 H17        -1.3450    3.1560    2.2860 hc        1 BLA      0.046200
     31 H18        -0.7580    4.6180    1.5030 hc        1 BLA      0.046200
     32 C12         0.5950    3.2610   -0.6240 c3        1 BLA     -0.078400
     33 H19        -0.0860    1.7340    0.7410 hc        1 BLA      0.041200
     34 H20         0.9860    2.9150    1.4820 hc        1 BLA      0.041200
     35 C13         1.8060    2.4870   -1.1510 c3        1 BLA     -0.081400
     36 H21         0.8090    4.3370   -0.6190 hc        1 BLA      0.041700
     37 H22        -0.2250    3.1040   -1.3350 hc        1 BLA      0.041700
     38 C14         3.1150    2.8970   -0.4770 c3        1 BLA     -0.077400
     39 H23         1.8950    2.7000   -2.2240 hc        1 BLA      0.042700
     40 H24         1.6290    1.4100   -1.0670 hc        1 BLA      0.042700
     41 C15         3.8400    1.7190    0.1800 c3        1 BLA     -0.084400
     42 H25         2.9530    3.6890    0.2640 hc        1 BLA      0.039200
     43 H26         3.7720    3.3260   -1.2440 hc        1 BLA      0.039200
     44 C16         5.1410    2.2090    0.8010 c3        1 BLA     -0.128400
     45 H27         4.0460    0.9440   -0.5680 hc        1 BLA      0.057700
     46 H28         3.2070    1.2620    0.9500 hc        1 BLA      0.057700
     47 C17         6.0660    1.0900    1.2060 c         1 BLA      0.635100
     48 O           5.7470    0.1120    1.8670 o         1 BLA     -0.531000
     49 C18         6.7930   -1.6190   -0.5520 c         1 BLA      0.652100
     50 C19         6.0330   -2.8420   -0.0910 c3        1 BLA     -0.134400
     51 C20         4.6240   -2.9110   -0.6790 c3        1 BLA     -0.076400
     52 H29         5.9700   -2.8010    1.0030 hc        1 BLA      0.084700
     53 H30         6.6010   -3.7340   -0.3800 hc        1 BLA      0.084700
     54 C21         3.8080   -4.0220   -0.0150 c3        1 BLA     -0.079400
     55 H31         4.6880   -3.0850   -1.7600 hc        1 BLA      0.051700
     56 H32         4.1220   -1.9470   -0.5410 hc        1 BLA      0.051700
     57 C22         2.4450   -4.2660   -0.6670 c3        1 BLA     -0.077400
     58 H33         3.6740   -3.7940    1.0490 hc        1 BLA      0.043700
     59 H34         4.3750   -4.9610   -0.0560 hc        1 BLA      0.043700
     60 C23         1.5130   -3.0540   -0.7640 c3        1 BLA     -0.081400
     61 H35         1.9340   -5.0600   -0.1070 hc        1 BLA      0.041200
     62 H36         2.6030   -4.6600   -1.6790 hc        1 BLA      0.041200
     63 C24         1.2150   -2.3990    0.5870 c3        1 BLA     -0.078400
     64 H37         0.5800   -3.3940   -1.2270 hc        1 BLA      0.040200
     65 H38         1.9410   -2.3100   -1.4470 hc        1 BLA      0.040200
     66 C25         0.1950   -1.2610    0.4850 c3        1 BLA     -0.079400
     67 H39         2.1410   -1.9800    0.9970 hc        1 BLA      0.041200
     68 H40         0.8620   -3.1510    1.3020 hc        1 BLA      0.041200
     69 C26        -1.2360   -1.7540    0.2600 c3        1 BLA     -0.079400
     70 H41         0.4840   -0.5740   -0.3190 hc        1 BLA      0.039200
     71 H42         0.2270   -0.6890    1.4210 hc        1 BLA      0.039200
     72 C27        -2.2340   -0.5930    0.2290 c3        1 BLA     -0.080400
     73 H43        -1.5100   -2.4510    1.0620 hc        1 BLA      0.040700
     74 H44        -1.3030   -2.3060   -0.6840 hc        1 BLA      0.040700
     75 C28        -3.6660   -1.1080    0.0790 c3        1 BLA     -0.079400
     76 H45        -1.9910    0.0780   -0.6040 hc        1 BLA      0.039700
     77 H46        -2.1500   -0.0090    1.1540 hc        1 BLA      0.039700
     78 C29        -4.6860    0.0320    0.0480 c3        1 BLA     -0.082400
     79 H47        -3.8970   -1.7810    0.9140 hc        1 BLA      0.039700
     80 H48        -3.7490   -1.6980   -0.8420 hc        1 BLA      0.039700
     81 C30        -6.1110   -0.5200   -0.0280 c3        1 BLA     -0.079400
     82 H49        -4.4910    0.6790   -0.8170 hc        1 BLA      0.041700
     83 H50        -4.5780    0.6510    0.9470 hc        1 BLA      0.041700
     84 C31        -7.1570    0.5950   -0.0640 c3        1 BLA     -0.081400
     85 H51        -6.2960   -1.1650    0.8400 hc        1 BLA      0.039200
     86 H52        -6.2140   -1.1460   -0.9220 hc        1 BLA      0.039200
     87 C32        -8.5710    0.0130   -0.0870 c3        1 BLA     -0.080400
     88 H53        -6.9990    1.2200   -0.9510 hc        1 BLA      0.040700
     89 H54        -7.0390    1.2420    0.8140 hc        1 BLA      0.040700
     90 C33        -9.6300    1.1020   -0.1250 c3        1 BLA     -0.094100
     91 H55        -8.7300   -0.6090    0.8010 hc        1 BLA      0.038700
     92 H56        -8.6920   -0.6360   -0.9620 hc        1 BLA      0.038700
     93 H57        -9.5530    1.7550    0.7500 hc        1 BLA      0.033367
     94 H58       -10.6300    0.6580   -0.1300 hc        1 BLA      0.033367
     95 H59        -9.5270    1.7160   -1.0250 hc        1 BLA      0.033367
     96 O1          6.3880   -0.7910   -1.3550 o         1 BLA     -0.597000
     97 C34         9.5760    1.5140    1.4880 c3        1 BLA      0.171400
     98 O2          9.8310    2.4640    0.4650 os        1 BLA     -0.559200
     99 P           9.1010    3.9060    0.5730 p5        1 BLA      1.440800
    100 C35         7.6750    5.1190   -1.1900 c3        1 BLA      0.201400
    101 C36         6.8690    5.7540   -0.0440 c3        1 BLA      0.086800
    102 N           5.9910    6.9670   -0.4530 n4        1 BLA     -0.578800
    103 H60         7.5290    6.1250    0.7460 hx        1 BLA      0.088700
    104 H61         6.1840    5.0180    0.3900 hx        1 BLA      0.088700
    105 C37         5.0100    6.6010   -1.5440 c3        1 BLA      0.076100
    106 C38         5.2150    7.3750    0.7970 c3        1 BLA      0.076100
    107 C39         8.7760   -0.3710   -0.0270 c3        1 BLA      0.124400
    108 O3          7.9930   -1.5820    0.0920 os        1 BLA     -0.431900
    109 O4          8.0810    3.9500    1.6880 o         1 BLA     -0.815000
    110 O5         10.0880    5.0270    0.4170 o         1 BLA     -0.815000
    111 O6          8.2420    3.8750   -0.8090 os        1 BLA     -0.573200
    112 H62         8.4740    5.7860   -1.5300 h1        1 BLA      0.047700
    113 H63         7.0370    4.9080   -2.0520 h1        1 BLA      0.047700
    114 C40         6.8800    8.1180   -0.8840 c3        1 BLA      0.076100
    115 H64        -2.2910    5.5670   -0.0710 ha        1 BLA      0.121000
    116 H65        -2.6380    2.5270    0.1840 ha        1 BLA      0.124000
    117 O7          7.3020    1.3710    0.7390 os        1 BLA     -0.462900
    118 C41         8.4240    0.5640    1.1350 c3        1 BLA      0.094100
    119 H66         9.3680    2.0300    2.4310 h1        1 BLA      0.057200
    120 H67        10.4970    0.9430    1.6490 h1        1 BLA      0.057200
    121 H68         8.1810   -0.0250    2.0280 h1        1 BLA      0.096700
    122 H69         8.6250    0.0990   -1.0050 h1        1 BLA      0.099700
    123 H70         9.8210   -0.6920    0.0370 h1        1 BLA      0.099700
    124 H71         4.9540    2.8360    1.6790 hc        1 BLA      0.073700
    125 H72         5.6620    2.8290    0.0630 hc        1 BLA      0.073700
    126 H73         4.4670    5.7020   -1.2400 hx        1 BLA      0.100922
    127 H74         5.5540    6.4310   -2.4770 hx        1 BLA      0.100922
    128 H75         4.3150    7.4360   -1.6790 hx        1 BLA      0.100922
    129 H76         7.4080    7.8350   -1.7980 hx        1 BLA      0.100922
    130 H77         7.5880    8.3370   -0.0790 hx        1 BLA      0.100922
    131 H78         6.2440    8.9870   -1.0760 hx        1 BLA      0.100922
    132 H79         4.5790    6.5380    1.1020 hx        1 BLA      0.100922
    133 H80         4.5990    8.2460    0.5520 hx        1 BLA      0.100922
    134 H81         5.9280    7.6260    1.5890 hx        1 BLA      0.100922
@<TRIPOS>BOND
     1    1    2 1   
     2    1    3 1   
     3    1    4 1   
     4    1    5 1   
     5    2    6 1   
     6    2    7 1   
     7    2    8 1   
     8    6    9 1   
     9    6   10 1   
    10    6   11 1   
    11    9   12 1   
    12    9   13 1   
    13    9   14 1   
    14   12   15 1   
    15   12   16 1   
    16   12   17 1   
    17   15   18 1   
    18   15   19 1   
    19   15   20 1   
    20   18   21 1   
    21   18   22 1   
    22   18   23 1   
    23   21   24 1   
    24   21   25 1   
    25   21   26 1   
    26   24   27 2   
    27   27   28 1   
    28   28   29 1   
    29   28   30 1   
    30   28   31 1   
    31   29   32 1   
    32   29   33 1   
    33   29   34 1   
    34   32   35 1   
    35   32   36 1   
    36   32   37 1   
    37   35   38 1   
    38   35   39 1   
    39   35   40 1   
    40   38   41 1   
    41   38   42 1   
    42   38   43 1   
    43   41   44 1   
    44   41   45 1   
    45   41   46 1   
    46   47   48 2   
    47   49   50 1   
    48   50   51 1   
    49   50   52 1   
    50   50   53 1   
    51   51   54 1   
    52   51   55 1   
    53   51   56 1   
    54   54   57 1   
    55   54   58 1   
    56   54   59 1   
    57   57   60 1   
    58   57   61 1   
    59   57   62 1   
    60   60   63 1   
    61   60   64 1   
    62   60   65 1   
    63   63   66 1   
    64   63   67 1   
    65   63   68 1   
    66   66   69 1   
    67   66   70 1   
    68   66   71 1   
    69   69   72 1   
    70   69   73 1   
    71   69   74 1   
    72   72   75 1   
    73   72   76 1   
    74   72   77 1   
    75   75   78 1   
    76   75   79 1   
    77   75   80 1   
    78   78   81 1   
    79   78   82 1   
    80   78   83 1   
    81   81   84 1   
    82   81   85 1   
    83   81   86 1   
    84   84   87 1   
    85   84   88 1   
    86   84   89 1   
    87   87   90 1   
    88   87   91 1   
    89   87   92 1   
    90   90   93 1   
    91   90   94 1   
    92   90   95 1   
    93   49   96 2   
    94   97   98 1   
    95   98   99 1   
    96  100  101 1   
    97  101  102 1   
    98  101  103 1   
    99  101  104 1   
   100  102  105 1   
   101  102  106 1   
   102  107  108 1   
   103  108   49 1   
   104   99  109 1   
   105   99  110 1   
   106   99  111 1   
   107  111  100 1   
   108  100  112 1   
   109  100  113 1   
   110  102  114 1   
   111   24  115 1   
   112   27  116 1   
   113   47  117 1   
   114   97  118 1   
   115   97  119 1   
   116   97  120 1   
   117  118  117 1   
   118  118  107 1   
   119  118  121 1   
   120  107  122 1   
   121  107  123 1   
   122   44   47 1   
   123   44  124 1   
   124   44  125 1   
   125  105  126 1   
   126  105  127 1   
   127  105  128 1   
   128  114  129 1   
   129  114  130 1   
   130  114  131 1   
   131  106  132 1   
   132  106  133 1   
   133  106  134 1   
@<TRIPOS>SUBSTRUCTURE
     1 BLA         1 TEMP              0 ****  ****    0 ROOT
