@<TRIPOS>MOLECULE
*****
 134 133 0 0 0
SMALL
GASTEIGER

@<TRIPOS>ATOM
      1 C         -12.2760    5.8424    0.5821 C.3     1  LIG1111    -0.0653
      2 C         -11.0375    4.9615    0.6352 C.3     1  LIG1111    -0.0559
      3 H         -12.1979    6.6726    1.2911 H       1  LIG1111     0.0230
      4 H         -13.1673    5.2601    0.8358 H       1  LIG1111     0.0230
      5 H         -12.4178    6.2593   -0.4204 H       1  LIG1111     0.0230
      6 C          -9.7789    5.7487    0.2728 C.3     1  LIG1111    -0.0533
      7 H         -11.1658    4.1240   -0.0607 H       1  LIG1111     0.0263
      8 H         -10.9363    4.5365    1.6403 H       1  LIG1111     0.0263
      9 C          -8.5353    4.8576    0.2840 C.3     1  LIG1111    -0.0531
     10 H          -9.6431    6.5778    0.9778 H       1  LIG1111     0.0265
     11 H          -9.9043    6.1907   -0.7235 H       1  LIG1111     0.0265
     12 C          -7.3075    5.6227   -0.2090 C.3     1  LIG1111    -0.0530
     13 H          -8.7049    3.9936   -0.3684 H       1  LIG1111     0.0265
     14 H          -8.3577    4.4730    1.2952 H       1  LIG1111     0.0265
     15 C          -6.0722    4.7224   -0.2997 C.3     1  LIG1111    -0.0528
     16 H          -7.0983    6.4677    0.4580 H       1  LIG1111     0.0265
     17 H          -7.5275    6.0426   -1.1984 H       1  LIG1111     0.0265
     18 C          -4.9656    5.4118   -1.1014 C.3     1  LIG1111    -0.0496
     19 H          -6.3402    3.7814   -0.7951 H       1  LIG1111     0.0265
     20 H          -5.7180    4.4701    0.7065 H       1  LIG1111     0.0265
     21 C          -3.7561    4.5088   -1.3427 C.3     1  LIG1111    -0.0348
     22 H          -4.6678    6.3455   -0.6085 H       1  LIG1111     0.0268
     23 H          -5.3733    5.6910   -2.0815 H       1  LIG1111     0.0268
     24 C          -2.7219    4.5853   -0.2579 C.2     1  LIG1111    -0.0879
     25 H          -3.2638    4.8401   -2.2661 H       1  LIG1111     0.0307
     26 H          -4.0753    3.4748   -1.5202 H       1  LIG1111     0.0307
     27 C          -2.2310    3.5152    0.3859 C.2     1  LIG1111    -0.0879
     28 C          -1.0529    3.5778    1.3171 C.3     1  LIG1111    -0.0348
     29 C           0.1565    2.8025    0.7737 C.3     1  LIG1111    -0.0496
     30 H          -1.3452    3.1560    2.2857 H       1  LIG1111     0.0307
     31 H          -0.7580    4.6179    1.5029 H       1  LIG1111     0.0307
     32 C           0.5948    3.2606   -0.6242 C.3     1  LIG1111    -0.0528
     33 H          -0.0859    1.7345    0.7414 H       1  LIG1111     0.0268
     34 H           0.9859    2.9147    1.4818 H       1  LIG1111     0.0268
     35 C           1.8056    2.4872   -1.1507 C.3     1  LIG1111    -0.0530
     36 H           0.8087    4.3365   -0.6188 H       1  LIG1111     0.0265
     37 H          -0.2248    3.1039   -1.3349 H       1  LIG1111     0.0265
     38 C           3.1148    2.8967   -0.4767 C.3     1  LIG1111    -0.0526
     39 H           1.8953    2.7005   -2.2238 H       1  LIG1111     0.0265
     40 H           1.6288    1.4096   -1.0674 H       1  LIG1111     0.0265
     41 C           3.8402    1.7192    0.1801 C.3     1  LIG1111    -0.0430
     42 H           2.9525    3.6890    0.2637 H       1  LIG1111     0.0265
     43 H           3.7718    3.3261   -1.2444 H       1  LIG1111     0.0265
     44 C           5.1410    2.2087    0.8012 C.3     1  LIG1111     0.0450
     45 H           4.0461    0.9439   -0.5678 H       1  LIG1111     0.0270
     46 H           3.2070    1.2625    0.9499 H       1  LIG1111     0.0270
     47 C           6.0665    1.0902    1.2065 C.2     1  LIG1111     0.3075
     48 O           5.7473    0.1118    1.8666 O.2     1  LIG1111    -0.2508
     49 C           6.7934   -1.6192   -0.5519 C.2     1  LIG1111     0.3072
     50 C           6.0334   -2.8425   -0.0910 C.3     1  LIG1111     0.0449
     51 C           4.6242   -2.9112   -0.6790 C.3     1  LIG1111    -0.0430
     52 H           5.9701   -2.8013    1.0028 H       1  LIG1111     0.0377
     53 H           6.6009   -3.7338   -0.3802 H       1  LIG1111     0.0377
     54 C           3.8084   -4.0223   -0.0147 C.3     1  LIG1111    -0.0526
     55 H           4.6877   -3.0852   -1.7600 H       1  LIG1111     0.0270
     56 H           4.1217   -1.9469   -0.5408 H       1  LIG1111     0.0270
     57 C           2.4450   -4.2662   -0.6669 C.3     1  LIG1111    -0.0530
     58 H           3.6738   -3.7937    1.0494 H       1  LIG1111     0.0265
     59 H           4.3752   -4.9611   -0.0559 H       1  LIG1111     0.0265
     60 C           1.5134   -3.0539   -0.7642 C.3     1  LIG1111    -0.0531
     61 H           1.9336   -5.0598   -0.1072 H       1  LIG1111     0.0265
     62 H           2.6033   -4.6597   -1.6788 H       1  LIG1111     0.0265
     63 C           1.2149   -2.3991    0.5868 C.3     1  LIG1111    -0.0531
     64 H           0.5803   -3.3942   -1.2271 H       1  LIG1111     0.0265
     65 H           1.9407   -2.3102   -1.4471 H       1  LIG1111     0.0265
     66 C           0.1945   -1.2608    0.4849 C.3     1  LIG1111    -0.0531
     67 H           2.1412   -1.9803    0.9966 H       1  LIG1111     0.0265
     68 H           0.8621   -3.1515    1.3020 H       1  LIG1111     0.0265
     69 C          -1.2360   -1.7543    0.2596 C.3     1  LIG1111    -0.0531
     70 H           0.4838   -0.5744   -0.3187 H       1  LIG1111     0.0265
     71 H           0.2269   -0.6891    1.4206 H       1  LIG1111     0.0265
     72 C          -2.2336   -0.5930    0.2290 C.3     1  LIG1111    -0.0531
     73 H          -1.5095   -2.4507    1.0616 H       1  LIG1111     0.0265
     74 H          -1.3031   -2.3061   -0.6843 H       1  LIG1111     0.0265
     75 C          -3.6657   -1.1079    0.0792 C.3     1  LIG1111    -0.0531
     76 H          -1.9911    0.0784   -0.6035 H       1  LIG1111     0.0265
     77 H          -2.1497   -0.0092    1.1536 H       1  LIG1111     0.0265
     78 C          -4.6857    0.0324    0.0475 C.3     1  LIG1111    -0.0531
     79 H          -3.8970   -1.7810    0.9140 H       1  LIG1111     0.0265
     80 H          -3.7494   -1.6978   -0.8419 H       1  LIG1111     0.0265
     81 C          -6.1105   -0.5198   -0.0278 C.3     1  LIG1111    -0.0531
     82 H          -4.4909    0.6789   -0.8166 H       1  LIG1111     0.0265
     83 H          -4.5784    0.6506    0.9469 H       1  LIG1111     0.0265
     84 C          -7.1566    0.5951   -0.0637 C.3     1  LIG1111    -0.0533
     85 H          -6.2956   -1.1653    0.8398 H       1  LIG1111     0.0265
     86 H          -6.2142   -1.1464   -0.9222 H       1  LIG1111     0.0265
     87 C          -8.5709    0.0131   -0.0870 C.3     1  LIG1111    -0.0559
     88 H          -6.9987    1.2197   -0.9511 H       1  LIG1111     0.0265
     89 H          -7.0389    1.2425    0.8138 H       1  LIG1111     0.0265
     90 C          -9.6296    1.1022   -0.1251 C.3     1  LIG1111    -0.0653
     91 H          -8.7304   -0.6093    0.8014 H       1  LIG1111     0.0263
     92 H          -8.6919   -0.6358   -0.9623 H       1  LIG1111     0.0263
     93 H          -9.5531    1.7547    0.7503 H       1  LIG1111     0.0230
     94 H         -10.6300    0.6582   -0.1302 H       1  LIG1111     0.0230
     95 H          -9.5274    1.7160   -1.0254 H       1  LIG1111     0.0230
     96 O           6.3876   -0.7912   -1.3549 O.2     1  LIG1111    -0.2509
     97 C           9.5764    1.5143    1.4883 C.3     1  LIG1111     0.0951
     98 O           9.8306    2.4639    0.4647 O.3     1  LIG1111    -0.3236
     99 P           9.1005    3.9058    0.5726 P.3     1  LIG1111     0.2126
    100 C           7.6748    5.1194   -1.1905 C.3     1  LIG1111     0.0406
    101 C           6.8690    5.7537   -0.0439 C.3     1  LIG1111    -0.0645
    102 N           5.9908    6.9671   -0.4528 N.4     1  LIG1111     0.3759
    103 H           7.5295    6.1251    0.7464 H       1  LIG1111     0.0086
    104 H           6.1842    5.0182    0.3895 H       1  LIG1111     0.0086
    105 C           5.0098    6.6010   -1.5445 C.3     1  LIG1111    -0.1011
    106 C           5.2153    7.3755    0.7973 C.3     1  LIG1111    -0.1011
    107 C           8.7763   -0.3711   -0.0269 C.3     1  LIG1111     0.1315
    108 O           7.9932   -1.5817    0.0925 O.3     1  LIG1111    -0.4608
    109 O           8.0812    3.9505    1.6881 O.2     1  LIG1111    -0.5172
    110 O          10.0883    5.0273    0.4168 O.3     1  LIG1111    -0.4373
    111 O           8.2419    3.8748   -0.8093 O.3     1  LIG1111    -0.3293
    112 H           8.4739    5.7856   -1.5301 H       1  LIG1111     0.0545
    113 H           7.0373    4.9078   -2.0516 H       1  LIG1111     0.0545
    114 C           6.8804    8.1177   -0.8837 C.3     1  LIG111     -0.1011
    115 H          -2.2914    5.5672   -0.0714 H       1  LIG11       0.0569
    116 H          -2.6383    2.5273    0.1836 H       1  LIG11       0.0569
    117 O           7.3021    1.3709    0.7385 O.3     1  LIG11      -0.4555
    118 C           8.4239    0.5638    1.1355 C.3     1  LIG11       0.1604
    119 H           9.3676    2.0304    2.4314 H       1  LIG11       0.0602
    120 H          10.4974    0.9434    1.6489 H       1  LIG11       0.0602
    121 H           8.1806   -0.0255    2.0282 H       1  LIG11       0.0792
    122 H           8.6251    0.0992   -1.0051 H       1  LIG11       0.0736
    123 H           9.8208   -0.6924    0.0369 H       1  LIG11       0.0736
    124 H           4.9538    2.8359    1.6793 H       1  LIG11       0.0377
    125 H           5.6620    2.8291    0.0629 H       1  LIG11       0.0377
    126 H           4.4668    5.7024   -1.2401 H       1  LIG1        0.0028
    127 H           5.5541    6.4312   -2.4766 H       1  LIG1        0.0028
    128 H           4.3148    7.4357   -1.6786 H       1  LIG1        0.0028
    129 H           7.4079    7.8354   -1.7980 H       1  LIG1        0.0028
    130 H           7.5876    8.3373   -0.0786 H       1  LIG1        0.0028
    131 H           6.2438    8.9870   -1.0762 H       1  LIG1        0.0028
    132 H           4.5793    6.5381    1.1018 H       1  LIG1        0.0028
    133 H           4.5987    8.2456    0.5520 H       1  LIG1        0.0028
    134 H           5.9278    7.6262    1.5887 H       1  LIG1        0.0028
@<TRIPOS>BOND
     1     1     2    1
     2     1     3    1
     3     1     4    1
     4     1     5    1
     5     2     6    1
     6     2     7    1
     7     2     8    1
     8     6     9    1
     9     6    10    1
    10     6    11    1
    11     9    12    1
    12     9    13    1
    13     9    14    1
    14    12    15    1
    15    12    16    1
    16    12    17    1
    17    15    18    1
    18    15    19    1
    19    15    20    1
    20    18    21    1
    21    18    22    1
    22    18    23    1
    23    21    24    1
    24    21    25    1
    25    21    26    1
    26    24    27    2
    27    27    28    1
    28    28    29    1
    29    28    30    1
    30    28    31    1
    31    29    32    1
    32    29    33    1
    33    29    34    1
    34    32    35    1
    35    32    36    1
    36    32    37    1
    37    35    38    1
    38    35    39    1
    39    35    40    1
    40    38    41    1
    41    38    42    1
    42    38    43    1
    43    41    44    1
    44    41    45    1
    45    41    46    1
    46    47    48    2
    47    49    50    1
    48    50    51    1
    49    50    52    1
    50    50    53    1
    51    51    54    1
    52    51    55    1
    53    51    56    1
    54    54    57    1
    55    54    58    1
    56    54    59    1
    57    57    60    1
    58    57    61    1
    59    57    62    1
    60    60    63    1
    61    60    64    1
    62    60    65    1
    63    63    66    1
    64    63    67    1
    65    63    68    1
    66    66    69    1
    67    66    70    1
    68    66    71    1
    69    69    72    1
    70    69    73    1
    71    69    74    1
    72    72    75    1
    73    72    76    1
    74    72    77    1
    75    75    78    1
    76    75    79    1
    77    75    80    1
    78    78    81    1
    79    78    82    1
    80    78    83    1
    81    81    84    1
    82    81    85    1
    83    81    86    1
    84    84    87    1
    85    84    88    1
    86    84    89    1
    87    87    90    1
    88    87    91    1
    89    87    92    1
    90    90    93    1
    91    90    94    1
    92    90    95    1
    93    49    96    2
    94    97    98    1
    95    98    99    1
    96   100   101    1
    97   101   102    1
    98   101   103    1
    99   101   104    1
   100   102   105    1
   101   102   106    1
   102   107   108    1
   103   108    49    1
   104    99   109    2
   105    99   110    1
   106    99   111    1
   107   111   100    1
   108   100   112    1
   109   100   113    1
   110   102   114    1
   111    24   115    1
   112    27   116    1
   113    47   117    1
   114    97   118    1
   115    97   119    1
   116    97   120    1
   117   118   117    1
   118   118   107    1
   119   118   121    1
   120   107   122    1
   121   107   123    1
   122    44    47    1
   123    44   124    1
   124    44   125    1
   125   105   126    1
   126   105   127    1
   127   105   128    1
   128   114   129    1
   129   114   130    1
   130   114   131    1
   131   106   132    1
   132   106   133    1
   133   106   134    1
